# This script was generated automatically.
# Coordinates of nodes were set individually following SSI deployment from file "deployment.R"
# Author: Israel Vasconcelos
# Federal University of Alagoas
# Ago, 2016

[General]

include ../Parameters/Castalia.ini

sim-time-limit = 5000s 
SN.field_x = 100 # meters
SN.field_y = 100 # meters

SN.numNodes = 51
SN.deployment = "" # SSI (Baddeley, 2007)

# Physical process
SN.physicalProcessName = "CustomizablePhysicalProcess"
SN.physicalProcess[0].inputType = 3
include ../Parameters/NodesData/7-50-nodesData.ini

# Enabling mobility
SN.wirelessChannel.sigma = 0
SN.wirelessChannel.onlyStaticNodes = false
SN.wirelessChannel.bidirectionalSigma = 0

# Communication settings
SN.node[*].Communication.RoutingProtocolName = "MyRouting" # Single-hop routing
SN.node[*].Communication.Radio.RadioParametersFile = "../Parameters/Radio/CC2420.txt"
SN.node[*].Communication.Radio.TxOutputPower = "-25dBm"

# Application parameters
SN.node[*].ApplicationName = "ValueReporting"
SN.node[*].Application.evaluation = "varyPower"
SN.node[*].Application.samplingAlgorithm = "DropRandom"
SN.node[*].Application.seed = 7
SN.node[*].Application.sampleRate = 25
SN.node[*].Application.bufferSize = 990
SN.node[0].Application.isSink = true
SN.node[0].Application.collectTraceInfo = true 
SN.node[*].Application.displaySampleSensing = false

# Mobility parameters
SN.node[0].MobilityManager.collectTraceInfo = true # Mobility Trace
SN.node[0].MobilityManagerName = "RandomWalk"
SN.node[0].MobilityManager.updateInterval = 100
SN.node[0].MobilityManager.xCoorDestination = 0
SN.node[0].MobilityManager.yCoorDestination = 0
SN.node[0].MobilityManager.speed = 2
SN.node[0].xCoor = 0
SN.node[0].yCoor = 0

# Coordinates set individually following SSI deployment.
include ../Parameters/NodesData/7-50-nodesCoords.ini
